20

C	2.51925	-1.89425	-1.54693
O	1.45999	-2.49438	-1.49173
O	2.58008	-0.518707	-1.563
H	3.50194	-2.38774	-1.58805
H	3.49688	-0.17818	-1.60906
C	-1.85105	1.08281	2.31236
O	-2.3778	1.29582	3.39714
O	-1.28492	-0.120562	1.99256
H	-1.78815	1.83197	1.51025
H	-0.902156	-0.136849	1.08302
C	-0.262521	0.955915	-1.40413
O	-0.797939	1.96816	-0.993302
O	-0.183853	-0.177382	-0.609135
H	0.190561	0.840629	-2.39545
H	0.263436	-0.943377	-1.02163
C	5.51561	0.084404	0.0251854
O	5.22676	0.142015	-1.15739
O	4.58038	-0.207737	0.992695
H	6.52899	0.257154	0.417769
H	4.95736	-0.219075	1.89622


