44

C         -2.48564        2.28968       -0.83969
C         -1.58130        1.16773       -1.17822
O         -1.67285        0.58230       -2.24844
H         -3.19335        2.45750       -1.68044
H         -1.89868        3.21739       -0.67345
H         -3.06596        2.05067        0.07631
N         -0.67688        0.83551       -0.25409
C          0.27185       -0.23361       -0.43773
C          0.75697       -0.66644        0.93214
O          0.54122        0.02786        1.92372
H         -0.63143        1.30110        0.62574
H         -0.23274       -1.07799       -0.88994
C          1.46709        0.21803       -1.30638
H          1.98202        1.08482       -0.83987
H          2.19947       -0.60282       -1.44991
H          1.09835        0.53366       -2.30666
N          1.40877       -1.84252        1.02163
C          1.89685       -2.34162        2.28609
H          1.56725       -2.39332        0.20878
H          2.40601       -3.32143        2.15200
H          1.05684       -2.47866        3.00502
H          2.62368       -1.62742        2.73643
C         52.61600        3.16883       -0.28238
C         51.48570        2.27333        0.05187
O         50.46880        2.70678        0.57596
H         52.36410        4.20773        0.02278
H         52.80700        3.15187       -1.37602
H         53.53150        2.84760        0.25751
N         51.64510        0.98134       -0.24431
C         50.63470       -0.01165        0.02023
C         51.31260       -1.36746        0.05826
O         52.45900       -1.50910       -0.36318
H         52.48970        0.63587       -0.64449
H         50.20950        0.17107        0.99895
C         49.53480        0.00212       -1.06471
H         49.97460       -0.18499       -2.06755
H         48.75510       -0.76118       -0.86401
H         49.04670        1.00091       -1.08325
N         50.62260       -2.39672        0.58790
C         51.19130       -3.72143        0.67701
H         49.69880       -2.26032        0.93014
H         50.46880       -4.42918        1.14004
H         52.11730       -3.71062        1.29640
H         51.45730       -4.10388       -0.33500
