10

  C                 -1.76581600   -0.26601100    0.00004000
 O                 -2.97560600   -0.45570400   -0.00024000
 O                 -1.21713500    0.98692600    0.00026400
 H                 -1.02389600   -1.07726100    0.00012900
 H                 -0.23027300    0.97551900    0.00085000
 C                  2.27789000   -0.24852600    0.00000600
 O                  1.66274600   -1.29813600    0.00010900
 O                  1.60844700    0.96572900   -0.00025300
 H                  3.37020900   -0.15838400   -0.00001600
 H                  2.18389900    1.75682600   -0.00027800
