12

 C                 -0.57683100    0.50608100   -0.04122200
 C                  0.57683100   -0.50608100   -0.04122200
 N                  1.86743500    0.17990900   -0.01089000
 H                  2.08058600    0.67323800    0.84753700
 H                  2.65588500   -0.34653200   -0.36209400
 N                 -1.86743500   -0.17990900   -0.01089000
 H                 -2.08058600   -0.67323700    0.84753800
 H                 -2.65588500    0.34653200   -0.36209500
 H                 -0.51343600    1.09756600   -0.96008500
 H                 -0.42549300    1.21527500    0.79820200
 H                  0.51343600   -1.09756600   -0.96008500
 H                  0.42549300   -1.21527500    0.79820200