25

 C                 -1.74955200   -1.30110300   -0.31398400
 O                 -1.38674100   -0.16129900   -0.73844100
 O                 -2.87900800   -1.52769000    0.31835200
 H                 -1.13189800   -2.17789200   -0.47792100
 H                 -3.46496100   -0.70417700    0.49450700
 C                 -3.89405200    1.78732000    0.31089400
 O                 -4.26061400    0.65518800    0.69293300
 O                 -2.76860400    2.05916900   -0.34553300
 H                 -4.49392600    2.67796500    0.49317300
 H                 -2.18843700    1.24241800   -0.52903900
 C                  1.48477500   -1.39718600   -1.95698200
 O                  0.77375000   -2.39710100   -1.89403100
 O                  1.09136500   -0.14437100   -1.58304700
 H                  2.51329700   -1.38930300   -2.32510200
 H                  0.13745700   -0.10952900   -1.21427400
 C                  3.34960500    2.03982000   -0.09244200
 O                  3.24309100    1.31184700    0.90662400
 O                  2.72813500    1.88407100   -1.26340500
 H                  3.99736300    2.91809000   -0.10594500
 H                  2.09666000    1.09384700   -1.34288600
 C                  1.27481100   -1.29627000    2.24596100
 O                  0.54503500   -1.11045000    1.26203400
 O                  2.41470300   -0.64170600    2.51606500
 H                  1.06492700   -2.03498000    3.02314200
 H                  2.66709600    0.06680400    1.85126700